version 2
run Exp51-0-20161209-23:44:47-7272
attr configname Exp51
attr datetime 20161209-23:44:47
attr experiment Exp51
attr inifile omnetpp.ini
attr iterationvars ""
attr iterationvars2 $repetition=0
attr measurement ""
attr network RRNetwork
attr processid 7272
attr repetition 0
attr replication #0
attr resultdir results
attr runnumber 0
attr seedset 0

scalar RRNetwork.H1.udpApp[0] 	sentPk:count 	21023
attr interpolationmode  none
attr source  sentPk
attr title  "packets sent, count"
scalar RRNetwork.H1.udpApp[1] 	sentPk:count 	249800
attr interpolationmode  none
attr source  sentPk
attr title  "packets sent, count"
scalar RRNetwork.H2.udpApp[0] 	sentPk:count 	20950
attr interpolationmode  none
attr source  sentPk
attr title  "packets sent, count"
scalar RRNetwork.H2.udpApp[1] 	sentPk:count 	249799
attr interpolationmode  none
attr source  sentPk
attr title  "packets sent, count"
scalar RRNetwork.R2.ppp[2].queue.efQueue 	queueLength:timeavg 	90.028522153883
attr interpolationmode  sample-hold
attr title  "queue length, timeavg"
scalar RRNetwork.R2.ppp[2].queue.efQueue 	dropPk:count 	25395
attr interpolationmode  none
attr source  dropPkByQueue
attr title  "dropped packets, count"
scalar RRNetwork.R2.ppp[2].queue.efQueue 	rcvdPk:count 	85789
attr interpolationmode  none
attr title  "received packets, count"
scalar RRNetwork.R2.ppp[2].queue.af1xQueue 	queueLength:timeavg 	0
attr interpolationmode  sample-hold
attr title  "queue length, timeavg"
scalar RRNetwork.R2.ppp[2].queue.af1xQueue 	dropPk:count 	0
attr interpolationmode  none
attr source  dropPkByQueue
attr title  "dropped packets, count"
scalar RRNetwork.R2.ppp[2].queue.af1xQueue 	rcvdPk:count 	0
attr interpolationmode  none
attr title  "received packets, count"
scalar RRNetwork.R2.ppp[2].queue.af2xQueue 	queueLength:timeavg 	0
attr interpolationmode  sample-hold
attr title  "queue length, timeavg"
scalar RRNetwork.R2.ppp[2].queue.af2xQueue 	dropPk:count 	0
attr interpolationmode  none
attr source  dropPkByQueue
attr title  "dropped packets, count"
scalar RRNetwork.R2.ppp[2].queue.af2xQueue 	rcvdPk:count 	0
attr interpolationmode  none
attr title  "received packets, count"
scalar RRNetwork.R2.ppp[2].queue.af3xQueue 	queueLength:timeavg 	0
attr interpolationmode  sample-hold
attr title  "queue length, timeavg"
scalar RRNetwork.R2.ppp[2].queue.af3xQueue 	dropPk:count 	0
attr interpolationmode  none
attr source  dropPkByQueue
attr title  "dropped packets, count"
scalar RRNetwork.R2.ppp[2].queue.af3xQueue 	rcvdPk:count 	0
attr interpolationmode  none
attr title  "received packets, count"
scalar RRNetwork.R2.ppp[2].queue.af4xQueue 	queueLength:timeavg 	0
attr interpolationmode  sample-hold
attr title  "queue length, timeavg"
scalar RRNetwork.R2.ppp[2].queue.af4xQueue 	dropPk:count 	0
attr interpolationmode  none
attr source  dropPkByQueue
attr title  "dropped packets, count"
scalar RRNetwork.R2.ppp[2].queue.af4xQueue 	rcvdPk:count 	0
attr interpolationmode  none
attr title  "received packets, count"
scalar RRNetwork.R2.ppp[2].queue.beQueue 	queueLength:timeavg 	99.535642697216
attr interpolationmode  sample-hold
attr title  "queue length, timeavg"
scalar RRNetwork.R2.ppp[2].queue.beQueue 	dropPk:count 	70243
attr interpolationmode  none
attr source  dropPkByQueue
attr title  "dropped packets, count"
scalar RRNetwork.R2.ppp[2].queue.beQueue 	rcvdPk:count 	133686
attr interpolationmode  none
attr title  "received packets, count"
scalar RRNetwork.H5.udpApp[0] 	rcvdPk:count 	14296
attr interpolationmode  none
attr source  rcvdPk
attr title  "packets received, count"
scalar RRNetwork.H5.udpApp[1] 	rcvdPk:count 	18718
attr interpolationmode  none
attr source  rcvdPk
attr title  "packets received, count"
scalar RRNetwork.H6.udpApp[0] 	rcvdPk:count 	13841
attr interpolationmode  none
attr source  rcvdPk
attr title  "packets received, count"
scalar RRNetwork.H6.udpApp[1] 	rcvdPk:count 	5628
attr interpolationmode  none
attr source  rcvdPk
attr title  "packets received, count"
scalar RRNetwork.H7.udpApp[0] 	rcvdPk:count 	16432
attr interpolationmode  none
attr source  rcvdPk
attr title  "packets received, count"
scalar RRNetwork.H7.udpApp[1] 	rcvdPk:count 	29884
attr interpolationmode  none
attr source  rcvdPk
attr title  "packets received, count"
scalar RRNetwork.H8.udpApp[0] 	rcvdPk:count 	15825
attr interpolationmode  none
attr source  rcvdPk
attr title  "packets received, count"
scalar RRNetwork.H8.udpApp[1] 	rcvdPk:count 	9111
attr interpolationmode  none
attr source  rcvdPk
attr title  "packets received, count"
scalar RRNetwork.H3.udpApp[0] 	sentPk:count 	22356
attr interpolationmode  none
attr source  sentPk
attr title  "packets sent, count"
scalar RRNetwork.H3.udpApp[1] 	sentPk:count 	249799
attr interpolationmode  none
attr source  sentPk
attr title  "packets sent, count"
scalar RRNetwork.H4.udpApp[0] 	sentPk:count 	21534
attr interpolationmode  none
attr source  sentPk
attr title  "packets sent, count"
scalar RRNetwork.H4.udpApp[1] 	sentPk:count 	249799
attr interpolationmode  none
attr source  sentPk
attr title  "packets sent, count"
