version 2
run Exp21-0-20161209-12:42:40-8764
attr configname Exp21
attr datetime 20161209-12:42:40
attr experiment Exp21
attr iaTime 400ms
attr inifile omnetpp.ini
attr iterationvars $iaTime=400ms
attr iterationvars2 "$iaTime=400ms, $repetition=0"
attr measurement $iaTime=400ms
attr network DRRNetwork
attr processid 8764
attr repetition 0
attr replication #0
attr resultdir results
attr runnumber 0
attr seedset 0

scalar . 	iaTime 	400
attr unit  ms
scalar DRRNetwork.H1.udpApp[0] 	sentPk:count 	21668
attr interpolationmode  none
attr source  sentPk
attr title  "packets sent, count"
scalar DRRNetwork.H1.udpApp[1] 	sentPk:count 	29961
attr interpolationmode  none
attr source  sentPk
attr title  "packets sent, count"
scalar DRRNetwork.H2.udpApp[0] 	sentPk:count 	21624
attr interpolationmode  none
attr source  sentPk
attr title  "packets sent, count"
scalar DRRNetwork.H2.udpApp[1] 	sentPk:count 	29954
attr interpolationmode  none
attr source  sentPk
attr title  "packets sent, count"
scalar DRRNetwork.R2.ppp[2].queue.afQueue 	queueLength:timeavg 	1.7516226769754
attr interpolationmode  sample-hold
attr title  "queue length, timeavg"
scalar DRRNetwork.H5.udpApp[0] 	rcvdPk:count 	21668
attr interpolationmode  none
attr source  rcvdPk
attr title  "packets received, count"
scalar DRRNetwork.H5.udpApp[1] 	rcvdPk:count 	29961
attr interpolationmode  none
attr source  rcvdPk
attr title  "packets received, count"
scalar DRRNetwork.H6.udpApp[0] 	rcvdPk:count 	21624
attr interpolationmode  none
attr source  rcvdPk
attr title  "packets received, count"
scalar DRRNetwork.H6.udpApp[1] 	rcvdPk:count 	29954
attr interpolationmode  none
attr source  rcvdPk
attr title  "packets received, count"
scalar DRRNetwork.H7.udpApp[0] 	rcvdPk:count 	22316
attr interpolationmode  none
attr source  rcvdPk
attr title  "packets received, count"
scalar DRRNetwork.H7.udpApp[1] 	rcvdPk:count 	29951
attr interpolationmode  none
attr source  rcvdPk
attr title  "packets received, count"
scalar DRRNetwork.H3.udpApp[0] 	sentPk:count 	22319
attr interpolationmode  none
attr source  sentPk
attr title  "packets sent, count"
scalar DRRNetwork.H3.udpApp[1] 	sentPk:count 	29954
attr interpolationmode  none
attr source  sentPk
attr title  "packets sent, count"
